--==============================================================================
--		Synthetic reservoir simulation model Reek (2016)
--==============================================================================
-- The model is a variant of an old synthetic case used in a BASRA course (2006)
-- Used in a FMU set up
-- Grid input data generated from RMS project reek
--------------------------------------------------------------------------------
--RUNSPEC SECTION
--------------------------------------------------------------------------------

RUNSPEC

-- Simulation run title
TITLE
Reek synthetic reservoir model


-- Create unformated save file (also need a SAVE at the end of history)
SAVE
/

NOECHO

-- Simulation grid dimension (Imax, Jmax, Kmax)
DIMENS
    40  64   14  /

-- Simulation run start
START
 1 JAN 2000 /

--Activate Data Check Only option
--NOSIM

-- Fluid phases present
OIL
GAS
WATER
--DISGAS

-- Measurement unit used
METRIC

GRIDOPTS
   'YES'      1*       /

--Use saturation table end-point scaling
--ENDSCALE
-- 'NODIR'  'REVERS'  1  20  /

--Options for equilibration
EQLOPTS
 'QUIESC'  /

--Table dimensions
TABDIMS
-- NTSFUN NTPVT NSSFUN NPPVT NTFIP NRPVT
     1      1     50    24    6    20   /

-- Dimensions for equilibration tables
EQLDIMS
  2  100  20  /

--Regions dimension data
REGDIMS
-- NTFIP NMFIPR NRFREG NTFREG
    6    1      0      3      /

--Dimensions for fault data
FAULTDIM
  1300  /

--Dimension for well data
WELLDIMS
 100  100 100 100 /

--Production well VFP table dimension
VFPPDIMS
  20  20  15  15  15   50  /

-- If injection well VFP data is required, 
-- they should be specified here first
VFPIDIMS
  10   2   5  /

--Summary file dimensions
SMRYDIMS
  15000  /

-- Input and output files format
UNIFIN
UNIFOUT

-- Disables the initial index file output
NOINSPEC

-- Disables the restart index file output
NORSSPEC

-------------------------------------------------------------------------
--GRID SECTION
-------------------------------------------------------------------------

GRID

--Disable echoing of the input file  
NOECHO

--Requests output of an INIT file
INIT

--Control output of the Grid geometry file
GRIDFILE
  0 1  /

--Message print and stop limits
MESSAGES
 1* 1* 1* 1000 1* 1* 1* 1* 1000000 1000 0 /

--Generates connections across pinched-out layers
PINCH
 0.4  NOGAP  1*  TOPBOT  TOP  /


NOECHO

--Include simulation grid
INCLUDE
  '../include/grid/reek.grid' /

-- Include faults
-- Make sure that faults' name have 8 characters max.
INCLUDE
  '../include/grid/reek.faults'  /

--Include porosity
INCLUDE
 '../include/grid/reek.poro'  /
 
--Include permeability
INCLUDE
 '../include/grid/reek.perm'  /


--Set Kv to Kh ratio 
MULTIPLY
 PERMZ   0.3     /
/

-- Modifies the transmissibility across named fault 
INCLUDE
 '../include/grid/reek.multflt'  /

--Introduce a vertical barrier to obtain different pressure systems in observed RFT
INCLUDE
 '../include/grid/reek.multz'  /


-------------------------------------------------------------------------
--EDIT SECTION
-------------------------------------------------------------------------

EDIT


------------------------------------------------------------------------
--PROPS SECTION
-------------------------------------------------------------------------

PROPS

-- Include relative perm data:
INCLUDE                                
 '../include/props/swof.inc' /

INCLUDE                                
 '../include/props/sgof.txt' /

-- Include endpoints:
INCLUDE
 '../include/props/reek.endpoints' /

-- In this example SWCR(critical water saturation) = SWL (connate water saturation) 
COPY
 SWL   SWCR  / 
 SWL   SGU   /  
/

-- Next 2 keywords are used to make maximum gas saturation consistent: SGU=1-SWL
MULTIPLY
 SGU   -1 /
/
ADD
 SGU    1  /
/

SCALECRS
YES  /

-- Include PVT data
INCLUDE
  '../include/props/reek.pvt' /

-- Include SWinit data
INCLUDE
  '../include/props/reek.swatinit' /

------------------------------------------------------------------------
--REGIONS SECTION
------------------------------------------------------------------------

REGIONS

--Include EQLNUM regions
INCLUDE
  '../include/regions/reek.eqlnum' /

--Include FIPNUM regions
INCLUDE
  '../include/regions/reek.fipnum' /

EQUALS
 SATNUM     1       /
 PVTNUM     1      /   
/

-------------------------------------------------------------------------
--SOLUTION SECTION
-------------------------------------------------------------------------

SOLUTION

RTEMP
 100 /
  
INCLUDE                                
'../include/solution/reek.equil' /    
 
-- Dissolved gas-oil ratio versus depth
RSVD
 1500 184.0
 4000 184.0  /
 1500 184.0
 4000 184.0  /

RPTSOL
  FIP=2 RESTART=2 FIPRESV /

RPTRST                               
  BASIC=5 FLOWS /

------------------------------------------------------------------------
--SUMMARY SECTION
------------------------------------------------------------------------

SUMMARY

INCLUDE
 '../include/summary/reek.smry'   /

-------------------------------------------------------------------------
--SCHEDULE SECTION
-------------------------------------------------------------------------

SCHEDULE

TUNING
 1  5  7*  1 /
 /
 12  1  50  1  50  50   /

INCLUDE
 '../include/schedule/reek_history.sch' /

-- Write save file at the end of history
SAVE

-- There must be a TSTEP or DATES between SAVE and END, otherwise no save file is created
TSTEP
 1 /

END
